19
C7H12_mol126_conf1.log	Energy: -171952.8100613
C          1.55577        1.25893       -0.33730
C          0.96648       -0.15117       -0.38104
C          1.81046       -1.12850        0.44327
C         -0.46471       -0.18025        0.06391
C         -1.23876        0.69576        1.00102
C         -1.69865        0.47825       -0.40722
C         -1.60386       -1.01537       -0.43023
H          2.57156        1.26316       -0.73642
H          1.60198        1.63114        0.68855
H          0.95860        1.95871       -0.92505
H          0.97962       -0.49165       -1.42370
H          1.82326       -0.82967        1.49414
H          2.84249       -1.15432        0.08651
H          1.40414       -2.13958        0.38760
H         -0.80751        1.66398        1.23060
H         -1.80377        0.25222        1.82050
H         -1.86213        1.18288       -1.20523
H         -1.46606       -1.48338       -1.40027
H         -2.20257       -1.59942        0.26833
