19
C7H12_mol126_conf3.log	Energy: -171952.8099910
C         -1.80975       -1.12900        0.44318
C         -0.96669       -0.15112       -0.38142
C         -1.55648        1.25867       -0.33686
C          0.46465       -0.17975        0.06301
C          1.60406       -1.01555       -0.42916
C          1.69903        0.47814       -0.40732
C          1.23826        0.69656        1.00045
H         -2.84194       -1.15529        0.08691
H         -1.82213       -0.83031        1.49411
H         -1.40290       -2.13984        0.38712
H         -0.98037       -0.49130       -1.42418
H         -1.60191        1.63063        0.68912
H         -2.57263        1.26247       -0.73509
H         -0.96014        1.95880       -0.92505
H          1.46751       -1.48432       -1.39901
H          2.20190       -1.59902        0.27065
H          1.86435        1.18207       -1.20557
H          0.80723        1.66508        1.22910
H          1.80258        0.25336        1.82059
