19
C7H12_mol12_conf1.log	Energy: -171970.8073052
C          0.71563        1.06978       -0.03672
C          1.51770        2.07640        0.16158
C         -0.09513        0.06958       -0.24263
C         -1.55084        0.31349       -0.58756
C         -2.51548       -0.08014        0.53524
C          0.35636       -1.37212       -0.14972
C          1.83112       -1.57538        0.17008
H          2.08691        2.51806       -0.64985
H          1.64889        2.51321        1.14615
H         -1.79478       -0.25707       -1.49052
H         -1.68789        1.36743       -0.83156
H         -2.44451       -1.14171        0.77633
H         -3.54759        0.12409        0.24432
H         -2.30015        0.48608        1.44313
H          0.11064       -1.85970       -1.10057
H         -0.25473       -1.87917        0.60405
H          2.46568       -1.11140       -0.58637
H          2.07160       -2.63885        0.21119
H          2.08975       -1.13071        1.13212
